@<TRIPOS>MOLECULE

78 86 6 0 0
POLYMER
CHARGES


@<TRIPOS>ATOM
1 CA 0 0 0 c3 1 gly    0.000
2 HA2 -0.352 0.533 0.883 h1 1 gly    0.000
3 HA1 -0.351 0.532 -0.884 h1 1 gly    0.000
4 N 1.463 0.000 0.000 n 1 gly    0.000
5 HN 1.932 0.845 -0.293 hn 1 gly    0.000
6 C -0.621 -1.405 0.000 c 1 gly    0.000
7 O -1.795 -1.542 -0.338 o 1 gly    0.000
8 CAC 1.451 -10.759 4.251 c 2 pro4(2S4S)    0.000
9 OA 0.646 -11.628 4.577 o 2 pro4(2S4S)    0.000
10 CA 2.957 -11.009 4.381 c3 2 pro4(2S4S)    0.000
11 HA 3.270 -11.601 3.519 h1 2 pro4(2S4S)    0.000
12 NA 3.745 -9.789 4.399 n 2 pro4(2S4S)    0.000
13 CD 4.935 -9.969 5.216 c3 2 pro4(2S4S)    0.000
14 HD2 4.910 -9.246 6.033 h1 2 pro4(2S4S)    0.000
15 HD1 5.840 -9.815 4.627 h1 2 pro4(2S4S)    0.000
16 CG 4.877 -11.406 5.773 c3 2 pro4(2S4S)    0.000
17 CB 3.379 -11.741 5.655 c3 2 pro4(2S4S)    0.000
18 HB1 3.203 -12.815 5.580 hc 2 pro4(2S4S)    0.000
19 HB2 2.831 -11.327 6.504 hc 2 pro4(2S4S)    0.000
20 CGC 5.721 -12.399 4.935 c 2 pro4(2S4S)    0.000
21 OG 5.785 -12.274 3.711 o 2 pro4(2S4S)    0.000
22 NG 5.263 -11.396 7.187 n 2 pro4(2S4S)    0.000
23 HN 5.001 -10.589 7.734 hn 2 pro4(2S4S)    0.000
24 CAC 5.850 -12.413 7.827 c 3 pro4(2S4S)    0.000
25 OA 6.055 -12.377 9.038 o 3 pro4(2S4S)    0.000
26 CA 6.282 -13.631 7.002 c3 3 pro4(2S4S)    0.000
27 HA 5.520 -14.401 7.127 h1 3 pro4(2S4S)    0.000
28 NA 6.408 -13.349 5.583 n 3 pro4(2S4S)    0.000
29 CD 7.447 -14.176 4.988 c3 3 pro4(2S4S)    0.000
30 HD2 8.199 -13.527 4.540 h1 3 pro4(2S4S)    0.000
31 HD1 7.029 -14.829 4.220 h1 3 pro4(2S4S)    0.000
32 CG 8.066 -15.005 6.131 c3 3 pro4(2S4S)    0.000
33 CB 7.639 -14.220 7.388 c3 3 pro4(2S4S)    0.000
34 HB1 7.565 -14.862 8.267 hc 3 pro4(2S4S)    0.000
35 HB2 8.339 -13.404 7.578 hc 3 pro4(2S4S)    0.000
36 CGC 7.494 -16.443 6.166 c 3 pro4(2S4S)    0.000
37 OG 6.282 -16.633 6.096 o 3 pro4(2S4S)    0.000
38 NG 9.524 -14.966 6.022 n 3 pro4(2S4S)    0.000
39 HN 9.946 -14.062 5.868 hn 3 pro4(2S4S)    0.000
40 CA 9.781 -17.406 6.386 c3 4 gly    0.000
41 HA2 10.071 -17.754 7.378 h1 4 gly    0.000
42 HA1 10.228 -18.071 5.647 h1 4 gly    0.000
43 N 8.330 -17.484 6.267 n 4 gly    0.000
44 HN 7.919 -18.407 6.264 hn 4 gly    0.000
45 C 10.355 -16.001 6.180 c 4 gly    0.000
46 O 11.572 -15.849 6.133 o 4 gly    0.000
47 CAC 1.884 -6.903 -0.192 c 5 pro4(2S4S)    0.000
48 OA 2.135 -7.714 -1.079 o 5 pro4(2S4S)    0.000
49 CA 2.250 -7.207 1.264 c3 5 pro4(2S4S)    0.000
50 HA 3.313 -6.993 1.390 h1 5 pro4(2S4S)    0.000
51 NA 1.512 -6.406 2.224 n 5 pro4(2S4S)    0.000
52 CD 1.305 -7.155 3.454 c3 5 pro4(2S4S)    0.000
53 HD2 0.232 -7.254 3.626 h1 5 pro4(2S4S)    0.000
54 HD1 1.760 -6.644 4.304 h1 5 pro4(2S4S)    0.000
55 CG 1.942 -8.543 3.240 c3 5 pro4(2S4S)    0.000
56 CB 1.987 -8.647 1.704 c3 5 pro4(2S4S)    0.000
57 HB1 2.771 -9.323 1.361 hc 5 pro4(2S4S)    0.000
58 HB2 1.016 -8.968 1.319 hc 5 pro4(2S4S)    0.000
59 CGC 3.372 -8.634 3.830 c 5 pro4(2S4S)    0.000
60 OG 4.116 -7.652 3.810 o 5 pro4(2S4S)    0.000
61 NG 1.049 -9.576 3.772 n 5 pro4(2S4S)    0.000
62 HN 0.055 -9.413 3.705 hn 5 pro4(2S4S)    0.000
63 CAC 2.229 -1.033 0.402 c 6 pro4(2S4S)    0.000
64 OA 3.454 -0.953 0.452 o 6 pro4(2S4S)    0.000
65 CA 1.519 -2.322 0.829 c3 6 pro4(2S4S)    0.000
66 HA 1.462 -2.315 1.918 h1 6 pro4(2S4S)    0.000
67 NA 0.167 -2.446 0.312 n 6 pro4(2S4S)    0.000
68 CD -0.172 -3.848 0.122 c3 6 pro4(2S4S)    0.000
69 HD2 -0.411 -4.009 -0.931 h1 6 pro4(2S4S)    0.000
70 HD1 -1.030 -4.128 0.734 h1 6 pro4(2S4S)    0.000
71 CG 1.078 -4.661 0.517 c3 6 pro4(2S4S)    0.000
72 CB 2.201 -3.615 0.386 c3 6 pro4(2S4S)    0.000
73 HB1 3.060 -3.855 1.015 hc 6 pro4(2S4S)    0.000
74 HB2 2.511 -3.520 -0.657 hc 6 pro4(2S4S)    0.000
75 CGC 1.005 -5.188 1.973 c 6 pro4(2S4S)    0.000
76 OG 0.456 -4.523 2.851 o 6 pro4(2S4S)    0.000
77 NG 1.291 -5.733 -0.460 n 6 pro4(2S4S)    0.000
78 HN 1.032 -5.548 -1.418 hn 6 pro4(2S4S)    0.000
@<TRIPOS>BOND
1 1 2 1 
2 1 3 1 
3 1 4 1 
4 1 6 1 
5 4 5 1 
6 4 63 1 
7 6 7 2 
8 6 67 1 
9 8 9 2 
10 8 10 1 
11 8 61 1 
12 10 11 1 
13 10 12 1 
14 10 17 1 
15 12 13 1 
16 12 59 1 
17 13 14 1 
18 13 15 1 
19 13 16 1 
20 16 17 1 
21 16 20 1 
22 16 22 1 
23 17 18 1 
24 17 19 1 
25 20 21 2 
26 20 28 1 
27 22 23 1 
28 22 24 1 
29 24 25 2 
30 24 26 1 
31 26 27 1 
32 26 28 1 
33 26 33 1 
34 28 29 1 
35 29 30 1 
36 29 31 1 
37 29 32 1 
38 32 33 1 
39 32 36 1 
40 32 38 1 
41 33 34 1 
42 33 35 1 
43 36 37 2 
44 36 43 1 
45 38 39 1 
46 38 45 1 
47 40 41 1 
48 40 42 1 
49 40 43 1 
50 40 45 1 
51 43 44 1 
52 45 46 2 
53 47 48 2 
54 47 49 1 
55 47 77 1 
56 49 50 1 
57 49 51 1 
58 49 56 1 
59 51 52 1 
60 51 75 1 
61 52 53 1 
62 52 54 1 
63 52 55 1 
64 55 56 1 
65 55 59 1 
66 55 61 1 
67 56 57 1 
68 56 58 1 
69 59 60 2 
70 61 62 1 
71 63 64 2 
72 63 65 1 
73 65 66 1 
74 65 67 1 
75 65 72 1 
76 67 68 1 
77 68 69 1 
78 68 70 1 
79 68 71 1 
80 71 72 1 
81 71 75 1 
82 71 77 1 
83 72 73 1 
84 72 74 1 
85 75 76 2 
86 77 78 1 
@<TRIPOS>SUBSTRUCTURE
1 gly 1 RESIDUE 1 A gly 1
2 pro4(2S4S) 8 RESIDUE 1 A pro4(2S4S) 1
3 pro4(2S4S) 24 RESIDUE 1 A pro4(2S4S) 1
4 gly 40 RESIDUE 1 A gly 1
5 pro4(2S4S) 47 RESIDUE 1 A pro4(2S4S) 1
6 pro4(2S4S) 63 RESIDUE 1 A pro4(2S4S) 1
