@<TRIPOS>MOLECULE
UNTITLED
62 68 5 0 0
POLYMER
CHARGES


@<TRIPOS>ATOM
1 CA 0 0 0 C.3 1 GLY    0.000
2 HA3 -0.352 -0.533 -0.883 H 1 GLY    0.000
3 HA2 -0.351 -0.532 0.884 H 1 GLY    0.000
4 N 1.463 0.000 0.000 N.am 1 GLY    0.000
5 HN 1.932 -0.845 0.293 H 1 GLY    0.000
6 C -0.621 1.405 0.000 C.2 1 GLY    0.000
7 O -1.795 1.542 0.338 O.2 1 GLY    0.000
8 CAC 2.229 1.033 -0.402 C.2 2 OSS    0.000
9 OA 3.454 0.953 -0.452 O.2 2 OSS    0.000
10 CA 1.519 2.322 -0.829 C.3 2 OSS    0.000
11 HA 1.462 2.315 -1.918 H 2 OSS    0.000
12 NA 0.167 2.446 -0.312 N.am 2 OSS    0.000
13 CD -0.172 3.848 -0.122 C.3 2 OSS    0.000
14 HD2 -0.411 4.009 0.931 H 2 OSS    0.000
15 HD1 -1.030 4.128 -0.734 H 2 OSS    0.000
16 CG 1.078 4.661 -0.517 C.3 2 OSS    0.000
17 CB 2.201 3.615 -0.386 C.3 2 OSS    0.000
18 HB1 3.060 3.855 -1.015 H 2 OSS    0.000
19 HB2 2.511 3.520 0.657 H 2 OSS    0.000
20 CGC 1.005 5.188 -1.973 C.2 2 OSS    0.000
21 OG 0.456 4.523 -2.851 O.2 2 OSS    0.000
22 NG 1.291 5.733 0.460 N.am 2 OSS    0.000
23 HN 1.032 5.548 1.418 H 2 OSS    0.000
24 CAC 1.882 6.901 0.192 C.2 3 OSS    0.000
25 OA 2.120 7.717 1.079 O.2 3 OSS    0.000
26 CA 2.250 7.207 -1.264 C.3 3 OSS    0.000
27 HA 3.311 6.987 -1.386 H 3 OSS    0.000
28 NA 1.512 6.407 -2.224 N.am 3 OSS    0.000
29 CD 1.290 7.154 -3.451 C.3 3 OSS    0.000
30 HD2 0.216 7.232 -3.626 H 3 OSS    0.000
31 HD1 1.760 6.652 -4.299 H 3 OSS    0.000
32 CG 1.901 8.553 -3.240 C.3 3 OSS    0.000
33 CB 1.991 8.648 -1.703 C.3 3 OSS    0.000
34 HB1 2.789 9.319 -1.380 H 3 OSS    0.000
35 HB2 1.036 8.979 -1.290 H 3 OSS    0.000
36 CGC 3.285 8.644 -3.932 C.2 3 OSS    0.000
37 OG 4.284 8.159 -3.401 O.2 3 OSS    0.000
38 NG 0.964 9.570 -3.728 N.am 3 OSS    0.000
39 HN 0.188 9.814 -3.131 H 3 OSS    0.000
40 CAC 1.012 10.132 -4.944 C.2 4 ORR    0.000
41 OA 0.133 10.894 -5.337 O.2 4 ORR    0.000
42 CA 2.211 9.798 -5.838 C.3 4 ORR    0.000
43 HA 1.897 9.014 -6.529 H 4 ORR    0.000
44 NA 3.360 9.310 -5.096 N.am 4 ORR    0.000
45 CD 4.597 9.709 -5.749 C.3 4 ORR    0.000
46 HD2 5.180 10.317 -5.055 H 4 ORR    0.000
47 HD1 5.181 8.835 -6.041 H 4 ORR    0.000
48 CG 4.199 10.540 -6.985 C.3 4 ORR    0.000
49 CB 2.759 10.973 -6.648 C.3 4 ORR    0.000
50 HB1 2.166 11.155 -7.545 H 4 ORR    0.000
51 HB2 2.771 11.865 -6.019 H 4 ORR    0.000
52 CGC 4.225 9.683 -8.275 C.2 4 ORR    0.000
53 OG 3.697 8.573 -8.296 O.2 4 ORR    0.000
54 NG 5.047 11.729 -7.064 N.am 4 ORR    0.000
55 HN 5.173 12.256 -6.213 H 4 ORR    0.000
56 N 4.836 10.156 -9.368 N.am 5 GLY    0.000
57 HN 4.864 9.552 -10.177 H 5 GLY    0.000
58 C 5.606 12.224 -8.171 C.2 5 GLY    0.000
59 O 6.256 13.264 -8.138 O.2 5 GLY    0.000
60 CA 5.479 11.458 -9.491 C.3 5 GLY    0.000
61 HA3 4.904 12.068 -10.189 H 5 GLY    0.000
62 HA2 6.478 11.317 -9.905 H 5 GLY    0.000
@<TRIPOS>BOND
1 1 2 1 
2 1 3 1 
3 1 4 1 
4 1 6 1 
5 4 5 1 
6 4 8 1 
7 6 7 2 
8 6 12 1 
9 8 9 2 
10 8 10 1 
11 10 11 1 
12 10 12 1 
13 10 17 1 
14 12 13 1 
15 13 14 1 
16 13 15 1 
17 13 16 1 
18 16 17 1 
19 16 20 1 
20 16 22 1 
21 17 18 1 
22 17 19 1 
23 20 21 2 
24 20 28 1 
25 22 23 1 
26 22 24 1 
27 24 25 2 
28 24 26 1 
29 26 27 1 
30 26 28 1 
31 26 33 1 
32 28 29 1 
33 29 30 1 
34 29 31 1 
35 29 32 1 
36 32 33 1 
37 32 36 1 
38 32 38 1 
39 33 34 1 
40 33 35 1 
41 36 37 2 
42 36 44 1 
43 38 39 1 
44 38 40 1 
45 40 41 2 
46 40 42 1 
47 42 43 1 
48 42 44 1 
49 42 49 1 
50 44 45 1 
51 45 46 1 
52 45 47 1 
53 45 48 1 
54 48 49 1 
55 48 52 1 
56 48 54 1 
57 49 50 1 
58 49 51 1 
59 52 53 2 
60 52 56 1 
61 54 55 1 
62 54 58 1 
63 56 57 1 
64 56 60 1 
65 58 59 2 
66 58 60 1 
67 60 61 1 
68 60 62 1 
@<TRIPOS>SUBSTRUCTURE
1 GLY 1 RESIDUE 1 A GLY 1
2 OSS 8 RESIDUE 1 A OSS 1
3 OSS 24 RESIDUE 1 A OSS 1
4 ORR 40 RESIDUE 1 A ORR 1
5 GLY 56 RESIDUE 1 A GLY 1
